48
 generated by VMD
 C        -1.842003       -3.545019        0.000000
 C        -3.070027       -2.836020        0.000000
 C        -3.070027       -1.418020        0.000000
 C        -1.842003       -0.709021        0.000000
 C         0.614044       -3.545019        0.000000
 C        -0.613979       -2.836020        0.000000
 C        -0.613979       -1.418020        0.000000
 C         0.614044       -0.709021        0.000000
 C         3.070093       -3.545019        0.000000
 C         1.842068       -2.836020        0.000000
 C         1.842068       -1.418020        0.000000
 C         3.070093       -0.709021        0.000000
 C        -1.842003        0.708981        0.000000
 C        -3.070027        1.417980        0.000000
 C        -3.070027        2.835979        0.000000
 C        -1.842003        3.544981        0.000000
 C         0.614044        0.708981        0.000000
 C        -0.613979        1.417980        0.000000
 C        -0.613979        2.835979        0.000000
 C         0.614044        3.544981        0.000000
 C         3.070093        0.708981        0.000000
 C         1.842068        1.417980        0.000000
 C         1.842068        2.835979        0.000000
 C         3.070093        3.544981        0.000000
 C        -1.842003       -3.545019       10.000000
 C        -3.070027       -2.836020       10.000000
 C        -3.070027       -1.418020       10.000000
 C        -1.842003       -0.709021       10.000000
 C         0.614044       -3.545019       10.000000
 C        -0.613979       -2.836020       10.000000
 C        -0.613979       -1.418020       10.000000
 C         0.614044       -0.709021       10.000000
 C         3.070093       -3.545019       10.000000
 C         1.842068       -2.836020       10.000000
 C         1.842068       -1.418020       10.000000
 C         3.070093       -0.709021       10.000000
 C        -1.842003        0.708981       10.000000
 C        -3.070027        1.417980       10.000000
 C        -3.070027        2.835979       10.000000
 C        -1.842003        3.544981       10.000000
 C         0.614044        0.708981       10.000000
 C        -0.613979        1.417980       10.000000
 C        -0.613979        2.835979       10.000000
 C         0.614044        3.544981       10.000000
 C         3.070093        0.708981       10.000000
 C         1.842068        1.417980       10.000000
 C         1.842068        2.835979       10.000000
 C         3.070093        3.544981       10.000000
